Version 4
SHEET 1 880 680
WIRE 384 -48 384 -64
WIRE 384 -16 384 -48
WIRE 320 32 256 32
WIRE 48 96 48 48
WIRE 16 112 -32 112
WIRE 384 112 384 80
WIRE 528 112 384 112
WIRE 624 112 528 112
WIRE 656 112 624 112
WIRE 256 128 256 32
WIRE 256 128 80 128
WIRE 16 144 -96 144
WIRE 384 160 384 112
WIRE 624 160 624 112
WIRE 48 192 48 160
WIRE 256 208 256 128
WIRE 320 208 256 208
WIRE 624 272 624 240
WIRE 384 304 384 256
WIRE -32 320 -32 112
WIRE 96 320 -32 320
WIRE 144 320 96 320
WIRE 528 320 528 112
WIRE 528 320 224 320
WIRE 96 352 96 320
WIRE 96 448 96 432
FLAG 48 -32 0
FLAG 48 272 0
FLAG 96 448 0
FLAG 384 -128 0
FLAG 384 384 0
FLAG -96 144 Vi
FLAG 656 112 Vo
FLAG 256 128 Vb
FLAG 624 272 0
FLAG -96 224 0
SYMBOL OpAmps\\opamp2 48 64 R0
SYMATTR InstName U1
SYMATTR Value LM741
SYMBOL voltage 48 64 R180
WINDOW 0 24 96 Left 2
WINDOW 3 24 16 Left 2
WINDOW 123 0 0 Left 0
WINDOW 39 0 0 Left 0
SYMATTR InstName V1
SYMATTR Value 12
SYMBOL voltage 48 288 R180
WINDOW 0 24 96 Left 2
WINDOW 3 24 16 Left 2
WINDOW 123 0 0 Left 0
WINDOW 39 0 0 Left 0
SYMATTR InstName V2
SYMATTR Value 12
SYMBOL npn 320 -16 R0
SYMATTR InstName Q1
SYMATTR Value BC547B
SYMBOL pnp 320 256 M180
SYMATTR InstName Q2
SYMATTR Value BC557B
SYMBOL res 240 304 R90
WINDOW 0 0 56 VBottom 2
WINDOW 3 32 56 VTop 2
SYMATTR InstName R1
SYMATTR Value 10k
SYMBOL res 80 336 R0
SYMATTR InstName R2
SYMATTR Value 1k
SYMBOL voltage 384 288 R0
WINDOW 123 0 0 Left 0
WINDOW 39 0 0 Left 0
SYMATTR InstName V3
SYMATTR Value 12
SYMBOL voltage 384 -32 R180
WINDOW 0 24 96 Left 2
WINDOW 3 24 16 Left 2
WINDOW 123 0 0 Left 0
WINDOW 39 0 0 Left 0
SYMATTR InstName V4
SYMATTR Value 12
SYMBOL res 608 144 R0
SYMATTR InstName RL
SYMATTR Value 1k
SYMBOL voltage -96 128 R0
WINDOW 123 24 124 Left 2
WINDOW 39 0 0 Left 0
SYMATTR InstName V5
SYMATTR Value ""
SYMATTR Value2 AC 0.5
TEXT -312 416 Left 2 !.include UA741.cir
TEXT -314 472 Left 2 !.ac dec 100 1 100Meg
