Version 4
SHEET 1 888 680
WIRE 384 0 224 0
WIRE 304 80 304 -16
WIRE 224 96 224 0
WIRE 256 96 224 96
WIRE 384 112 384 0
WIRE 384 112 352 112
WIRE 400 112 384 112
WIRE 512 112 464 112
WIRE 608 112 512 112
WIRE 656 112 608 112
WIRE 208 128 160 128
WIRE 256 128 208 128
WIRE 512 144 512 112
WIRE 608 144 608 112
WIRE 208 176 208 128
WIRE 304 256 304 144
WIRE 368 256 304 256
FLAG 208 256 0
FLAG 608 224 0
FLAG 512 208 0
FLAG 656 112 Vo
FLAG 96 128 Vi
FLAG 16 128 0
FLAG 368 176 0
FLAG 304 -96 0
SYMBOL cap 160 112 R90
WINDOW 0 0 32 VBottom 2
WINDOW 3 32 32 VTop 2
SYMATTR InstName Ci
SYMATTR Value 10µ
SYMBOL res 192 160 R0
SYMATTR InstName Ri
SYMATTR Value 100k
SYMBOL uA741 304 112 R0
SYMATTR InstName U1
SYMBOL diode 400 128 R270
WINDOW 0 32 32 VTop 2
WINDOW 3 0 32 VBottom 2
SYMATTR InstName D1
SYMBOL cap 496 144 R0
SYMATTR InstName Co
SYMATTR Value 100µ
SYMBOL res 592 128 R0
SYMATTR InstName Ro
SYMATTR Value 10k
SYMBOL voltage 368 160 R0
WINDOW 123 0 0 Left 0
WINDOW 39 0 0 Left 0
SYMATTR InstName V1
SYMATTR Value 12
SYMBOL voltage 112 128 R90
WINDOW 0 -32 56 VBottom 2
WINDOW 3 56 72 VTop 2
WINDOW 123 84 72 VTop 2
WINDOW 39 0 0 Left 0
SYMATTR InstName Vin
SYMATTR Value SINE(0 0.1 1k)
SYMATTR Value2 AC 1
SYMBOL voltage 304 0 R180
WINDOW 0 24 96 Left 2
WINDOW 3 24 16 Left 2
WINDOW 123 0 0 Left 0
WINDOW 39 0 0 Left 0
SYMATTR InstName V3
SYMATTR Value 12
TEXT -68 344 Left 2 !.ac lin 1000 1 1.5k
