Version 4
SHEET 1 880 680
WIRE 240 -128 192 -128
WIRE 336 -128 304 -128
WIRE 592 -128 336 -128
WIRE 336 -32 336 -128
WIRE 448 32 448 0
WIRE 480 32 448 32
WIRE 448 96 448 32
WIRE 64 112 32 112
WIRE 80 112 64 112
WIRE 192 112 192 -128
WIRE 192 112 160 112
WIRE 240 112 192 112
WIRE 336 112 336 48
WIRE 336 112 304 112
WIRE 400 112 336 112
WIRE 592 128 592 -128
WIRE 592 128 496 128
WIRE 640 128 592 128
WIRE 400 144 384 144
WIRE 192 176 192 112
WIRE 192 288 192 256
WIRE 336 384 336 368
WIRE 384 384 384 144
WIRE 384 384 336 384
WIRE 336 416 336 384
FLAG 192 288 0
FLAG 544 32 0
FLAG 448 160 0
FLAG 336 208 0
FLAG 336 496 0
FLAG 448 -80 0
FLAG -48 112 0
FLAG 640 128 Vo
FLAG 64 112 Vi
SYMBOL res 176 96 R90
WINDOW 0 0 56 VBottom 2
WINDOW 3 32 56 VTop 2
SYMATTR InstName R5
SYMATTR Value 18k
SYMBOL res 176 272 M180
WINDOW 0 36 76 Left 2
WINDOW 3 36 40 Left 2
SYMATTR InstName R6
SYMATTR Value 100k
SYMBOL res 352 64 R180
WINDOW 0 36 76 Left 2
WINDOW 3 36 40 Left 2
SYMATTR InstName R7
SYMATTR Value 560k
SYMBOL cap 304 96 R90
WINDOW 0 0 32 VBottom 2
WINDOW 3 32 32 VTop 2
SYMATTR InstName C4
SYMATTR Value 10n
SYMBOL cap 304 -144 R90
WINDOW 0 0 32 VBottom 2
WINDOW 3 32 32 VTop 2
SYMATTR InstName C5
SYMATTR Value 270p
SYMBOL uA741 448 128 R0
SYMATTR InstName U1
SYMBOL cap 544 16 R90
WINDOW 0 0 32 VBottom 2
WINDOW 3 32 32 VTop 2
SYMATTR InstName C6
SYMATTR Value 10µ
SYMBOL res 320 272 R0
SYMATTR InstName R8
SYMATTR Value 1k
SYMBOL res 320 400 R0
SYMATTR InstName R9
SYMATTR Value 1k
SYMBOL voltage 448 16 R180
WINDOW 0 24 96 Left 2
WINDOW 3 24 16 Left 2
WINDOW 123 0 0 Left 0
WINDOW 39 0 0 Left 0
SYMATTR InstName V1
SYMATTR Value 12
SYMBOL voltage 336 304 R180
WINDOW 0 24 96 Left 2
WINDOW 3 24 16 Left 2
WINDOW 123 0 0 Left 0
WINDOW 39 0 0 Left 0
SYMATTR InstName V2
SYMATTR Value 12
SYMBOL voltage 48 112 R90
WINDOW 0 -32 56 VBottom 2
WINDOW 3 32 56 VTop 2
WINDOW 123 60 56 VTop 2
WINDOW 39 0 0 Left 0
SYMATTR InstName V3
SYMATTR Value ""
SYMATTR Value2 AC 0.1
TEXT -72 520 Left 2 !.ac dec 1000 1 100Meg
